*----------------------------------------------------------------------
* SPICE Model generated by Murata Manufacturing Co., Ltd.
* Copyright(C) Murata Manufacturing Co., Ltd.
* Description :2012M(0805)/X7S/1uF/100V
* Murata P/N :GRJ21BC72A105KE11
* Property : C = 1[uF]
* Data Generated on Jan 10, 2017
*----------------------------------------------------------------------
* Applicable Conditions:
*   Frequency Range = 100Hz-6GHz
*   Temperature = 25 degC
*   DC Bias Voltage = 0V
*   Small Signal Operation
*----------------------------------------------------------------------
.SUBCKT GRJ21BC72A105KE11 port1 port2
C1 port1 11 1.07e-6
L2 11 12 1.52e-10
R3 12 13 7.37e-3
C4 13 14 1.13e-5
R4 13 14 677
C5 14 15 1.08e-4
R5 14 15 6.82
C6 15 16 7.89e-5
R6 15 16 1.11
C7 16 17 7.86e-5
R7 16 17 1.04e-1
C8 17 18 4.71e-5
R8 17 18 1.41e-2
L9 18 19 3.39e-11
R9 18 19 5.22e-2
L10 19 20 2.64e-10
R10 19 20 3.98e-2
C11 20 21 2.90e-6
L11 20 21 6.21e-11
R11 20 21 1.44e-2
C12 21 22 2.01e-6
L12 21 22 3.86e-11
R12 21 22 1.26e-2
C13 22 23 8.30e-12
L13 22 23 8.90e-11
R13 22 23 5.94
C14 23 port2 6.93e-12
L14 23 port2 4.53e-11
R14 23 port2 11.5
R100 port1 11 5.00e+7
.ENDS GRJ21BC72A105KE11