Version 4
SHEET 1 2516 680
WIRE 416 -144 160 -144
WIRE 560 -144 416 -144
WIRE 720 -144 624 -144
WIRE 416 -112 416 -144
WIRE 160 -32 160 -144
WIRE -224 32 -256 32
WIRE -128 32 -224 32
WIRE -48 32 -128 32
WIRE 16 32 -48 32
WIRE 416 32 416 -48
WIRE 416 32 304 32
WIRE 560 32 416 32
WIRE 720 32 720 -144
WIRE 720 32 640 32
WIRE 784 32 720 32
WIRE 896 32 784 32
WIRE 992 32 896 32
WIRE 1088 32 992 32
WIRE 1184 32 1088 32
WIRE 1792 32 1184 32
WIRE 1920 32 1792 32
WIRE -224 96 -224 32
WIRE -128 96 -128 32
WIRE 896 96 896 32
WIRE 992 96 992 32
WIRE 1088 96 1088 32
WIRE 1184 96 1184 32
WIRE -48 160 -48 32
WIRE 16 160 -48 160
WIRE 320 160 304 160
WIRE 352 160 320 160
WIRE 480 160 432 160
WIRE 512 160 480 160
WIRE 608 160 512 160
WIRE 784 160 784 32
WIRE 784 160 688 160
WIRE -432 224 -432 128
WIRE -224 224 -224 176
WIRE -128 224 -128 176
WIRE 480 224 480 160
WIRE 896 224 896 176
WIRE 992 224 992 176
WIRE 1088 224 1088 176
WIRE 1184 224 1184 176
WIRE 1792 224 1792 32
WIRE 160 288 160 224
WIRE 480 336 480 304
WIRE -432 352 -432 304
WIRE -224 352 -224 288
WIRE -128 352 -128 288
WIRE 896 352 896 304
WIRE 992 352 992 304
WIRE 1088 352 1088 304
WIRE 1184 352 1184 304
WIRE 1792 352 1792 304
WIRE 896 480 896 416
WIRE 992 480 992 416
WIRE 1088 480 1088 416
WIRE 1184 480 1184 416
FLAG -336 32 Vin
FLAG -432 128 Vin
FLAG -432 352 0
FLAG 160 288 0
FLAG 480 336 0
FLAG 1920 32 Vout
FLAG 1792 352 0
FLAG 896 480 0
FLAG -224 352 0
FLAG -128 352 0
FLAG 512 160 A
FLAG 320 160 B
FLAG 992 480 0
FLAG 1088 480 0
FLAG 1184 480 0
SYMBOL PowerProducts\\LT1616 160 96 R0
SYMATTR InstName U1
SYMBOL voltage -432 208 R0
WINDOW 123 0 0 Left 0
WINDOW 39 0 0 Left 0
SYMATTR InstName V1
SYMATTR Value 12
SYMBOL cap 432 -48 R180
WINDOW 0 24 56 Left 2
WINDOW 3 24 8 Left 2
SYMATTR InstName C1
SYMATTR Value 10n
SYMBOL ind 544 48 R270
WINDOW 0 32 56 VTop 2
WINDOW 3 5 56 VBottom 2
SYMATTR InstName L1
SYMATTR Value 10µ
SYMBOL res 464 208 R0
SYMATTR InstName R1
SYMATTR Value 10k
SYMBOL res 704 144 R90
WINDOW 0 0 56 VBottom 2
WINDOW 3 32 56 VTop 2
SYMATTR InstName R2
SYMATTR Value 70k
SYMBOL diode 624 -160 R90
WINDOW 0 0 32 VBottom 2
WINDOW 3 32 32 VTop 2
SYMATTR InstName D1
SYMATTR Value 1N4148
SYMBOL res 1776 208 R0
SYMATTR InstName R3
SYMATTR Value 25
SYMBOL cap 880 352 R0
SYMATTR InstName C4
SYMATTR Value {C}
SYMBOL res 880 80 R0
SYMATTR InstName R6
SYMATTR Value {ESR}
SYMBOL cap -240 224 R0
SYMATTR InstName C5
SYMATTR Value 10µ
SYMBOL res -240 80 R0
SYMATTR InstName R7
SYMATTR Value 10m
SYMBOL cap -144 224 R0
SYMATTR InstName C6
SYMATTR Value 10µ
SYMBOL res -144 80 R0
SYMATTR InstName R8
SYMATTR Value 10m
SYMBOL res -240 16 R90
WINDOW 0 0 56 VBottom 2
WINDOW 3 32 56 VTop 2
SYMATTR InstName R9
SYMATTR Value 100m
SYMBOL voltage 448 160 R90
WINDOW 0 -32 56 VBottom 2
WINDOW 3 32 56 VTop 2
WINDOW 123 0 0 Left 0
WINDOW 39 0 0 Left 0
SYMATTR InstName V2
SYMATTR Value SINE(0 1m {Freq})
SYMBOL ind 880 208 R0
SYMATTR InstName L2
SYMATTR Value {ESL}
SYMBOL cap 976 352 R0
SYMATTR InstName C2
SYMATTR Value {C}
SYMBOL res 976 80 R0
SYMATTR InstName R4
SYMATTR Value {ESR}
SYMBOL ind 976 208 R0
SYMATTR InstName L3
SYMATTR Value {ESL}
SYMBOL cap 1072 352 R0
SYMATTR InstName C3
SYMATTR Value {C}
SYMBOL res 1072 80 R0
SYMATTR InstName R5
SYMATTR Value {ESR}
SYMBOL ind 1072 208 R0
SYMATTR InstName L4
SYMATTR Value {ESL}
SYMBOL cap 1168 352 R0
SYMATTR InstName C7
SYMATTR Value {C}
SYMBOL res 1168 80 R0
SYMATTR InstName R10
SYMATTR Value {ESR}
SYMBOL ind 1168 208 R0
SYMATTR InstName L5
SYMATTR Value {ESL}
TEXT -170 408 Left 2 !;.param t0=3m\n;.tran 0 {t0+25/freq} {t0}
TEXT 2000 376 Left 2 !.model SW SW(Ron=1m Roff=1meg Vt=0.5)
TEXT 168 400 Left 2 !;.step oct param freq 5K 500K 5\n;.save V(a) V(b)\n;.option plotwinsize=0 numdgt=15
TEXT 888 -256 Left 2 !.measure Aavg avg V(a)\n.measure Bavg avg V(b)\n.measure Are avg (V(a)-Aavg)*cos(360*time*Freq)\n.measure Aim avg -(V(a)-Aavg)*sin(360*time*Freq)\n.measure Bre avg (V(b)-Bavg)*cos(360*time*Freq)\n.measure Bim avg -(V(b)-Bavg)*sin(360*time*Freq)\n.measure GainMag param 20*log10(hypot(Are,Aim) / hypot(Bre,Bim))\n.measure GainPhi param mod(atan2(Aim, Are) - atan2(Bim, Bre)+180,360)-180
TEXT -466 476 Left 2 !.tran 10m startup uic
TEXT 1472 416 Left 2 !.param ESR 10m\n.param ESL 960p\n.param C 47u
